LAMMPS (23 Jun 2022 - Update 4)
dimension 	3
boundary 	p p p
atom_style 	atomic

#-------------------------------------Define variables-------------------------------------------------

lattice  fcc 3.518
Lattice spacing in x,y,z = 3.518 3.518 3.518
#variable big_lattice equal 4.000                                #Optimized lattice paramter

variable time_step    equal  0.001				#Time step in pico seconds (DO NOT CHANGE THIS VALUE)
variable tempsol   equal  300				#Initial temperature in kelvin
variable templiq    equal  2000				#Final temperature in kelvin
variable tempcoex  equal 1200
#variable myseed      equal  12345   				#The value seed for the velocity (DO NOT CHANGE THIS VALUE)
variable tdamp        equal  "v_time_step*100" 			#DO NOT CHANGE
variable pdamp        equal  "v_time_step*1000"			#DO NOT CHANGE
variable time_eq      equal  1000 				#Equilibration time is 100 ps
variable time_run     equal  "v_time_eq/v_time_step"	        #Time steps for the iteration to complete=100000=100ps/0.001ps

variable x1 equal "step"
variable x2 equal "vol"
variable x3 equal "temp"

#------------------------------------------Box Parameters----------------------------------------------

region          boxid block 0 6 0 6 0 6 units lattice
create_box      5 boxid
Created orthogonal box = (0 0 0) to (21.108 21.108 21.108)
create_atoms    1 box
Created 864 atoms

# Total 5 elements, randomly replace fractions of atom type 1 (Fe) into other atom types (2=Mn, 3=Co, 4=Cr, and 5=Ni).
# This is done sequentially such that the composition is equiatomic.

set 		type 1 type/fraction 2 0.17  324261
Setting atom values ...
  154 settings made for type/fraction
set 		type 1 type/fraction 3 0.22  84326
Setting atom values ...
  163 settings made for type/fraction
set 		type 1 type/fraction 4 0.45  654320
Setting atom values ...
  252 settings made for type/fraction
set 		type 1 type/fraction 5 0.50  121098
Setting atom values ...
  135 settings made for type/fraction

#------------------------------------------Define mass as per the sequence in the POTCAR file------------------------------------
mass		1 55.845	    #Fe
mass		2 54.9380	    #Mn
mass		3 58.933194 	    #Co
mass		4 51.9961	    #Cr
mass		5 58.6934	    #Ni

#-----------------------------create upper and lower regions for coexistence simulations
#region lower block 0 6 0 6 0 3
#region upper block 0 6 0 6 3 6
#group lower region lower
#group upper region upper

#-----------------------------Define Machine Learning Interatomic Potential (MLIP)---------------------

pair_style  mlip mlip.ini
pair_coeff  * *

neighbor    1.0 bin
neigh_modify delay 0 every 1 check yes

#--------------------------------------------Create regions-------------------------------------------

#---------------------------------------Energy Minimization energy  force------------------------------

minimize        	 1.0e-12 1.0e-12 1000 1000
  update every 1 steps, delay 0 steps, check yes
Setting up cg style minimization ...
  Unit style    : metal
  Current step  : 0
Step          Temp          E_pair         E_mol          TotEng         Press
0   0             -6406.1996      0             -6406.1996     -28256.056
Loop time of 0.0263455 on 192 procs for 29 steps with 864 atoms

Minimization stats:
  Stopping criterion = energy tolerance
  Energy initial, next-to-last, final =
  Force two-norm initial, final = 10.082796 0.0001520145
  Force max component initial, final = 0.86121498 1.9064302e-05
  Final line search alpha, max atom move = 1 1.9064302e-05
  Iterations, force evaluations = 29 58

write_data	minimized_structure.data
System init for write_data ...

#----------------------------------------Collecting Thermodynamic Data----------------------------------
thermo           	1000
thermo_style     	custom step temp vol press pe ke etotal enthalpy density
log        	        log_HEA_MGs.data

#---------------------------------------------Dumping Data----------------------------------------------

dump 		        1 all custom 50000 HEA_sol_liq_dump_new*.lammpstrj id type x y z

#----------------------------------Equilibation for 100 ps @ NVT ----------------------------------------

velocity all create 300 12345 mom yes dist gaussian
#run			100000
#unfix			equil

#unfix			equiliq

#unfix                   equiliq2

#fix                     equil all nve
#run                     2000000
#unfix                   equil
#unfix                   equildata

fix                      1 all npt temp 300 1000 0.1 iso 1.0 1.0 1
run                      2000000
Setting up Verlet run ...
  Unit style    : metal
  Current step  : 29
  Time step     : 0.001
Step          Temp          Volume         Press          PotEng         KinEng         TotEng        Enthalpy       Density
29   300            9404.6201     -27728.798     -6412.2772      33.465452     -6378.8117     -6541.5771      8.4801946
Averages over the last 1001 of 2002 rows, steps 1001000 to 2000029:
Temp Volume Press PotEng KinEng TotEng Enthalpy Density
824.423 9536.66 -223.763 -6315.54 91.9656 -6223.58 -6224.98 8.36293
Loop time of 609.203 on 192 procs for 2000000 steps with 864 atoms

unfix                    1
fix                      3 all npt temp 1000 1000 0.1 iso 1.0 1.0 1
run                      1000000
Setting up Verlet run ...
  Unit style    : metal
  Current step  : 2000029
  Time step     : 0.001
Step          Temp          Volume         Press          PotEng         KinEng         TotEng        Enthalpy       Density
2000029   988.96261      9553.0927      11047.291     -6294.5912      110.32027     -6184.2709     -6118.4006      8.3483968
Averages over the last 501 of 1002 rows, steps 2501000 to 3000029:
Temp Volume Press PotEng KinEng TotEng Enthalpy Density
999.56 9598.04 -242.585 -6292.37 111.502 -6180.86 -6182.41 8.30936
Loop time of 304.364 on 192 procs for 1000000 steps with 864 atoms

unfix                    3
fix                      4 all npt temp 1000 1600 0.1 iso 1.0 1.0 1
run                      2000000
Setting up Verlet run ...
  Unit style    : metal
  Current step  : 3000029
  Time step     : 0.001
Step          Temp          Volume         Press          PotEng         KinEng         TotEng        Enthalpy       Density
3000029   1017.505       9588.9988      2800.3189     -6290.8501      113.50421     -6177.3459     -6160.586       8.3171362
Averages over the last 1001 of 2002 rows, steps 4001000 to 5000029:
Temp Volume Press PotEng KinEng TotEng Enthalpy Density
1450.13 9801.5 -519.979 -6221.58 161.765 -6059.81 -6063.14 8.1371
Loop time of 612.369 on 192 procs for 2000000 steps with 864 atoms

unfix                    4
fix                      5 all npt temp 1600 1600 0.1 iso 1.0 1.0 1
run                      1000000
Setting up Verlet run ...
  Unit style    : metal
  Current step  : 5000029
  Time step     : 0.001
Step          Temp          Volume         Press          PotEng         KinEng         TotEng        Enthalpy       Density
5000029   1600.773       9918.3006     -8491.3355     -6194.0418      178.56863     -6015.4732     -6068.039       8.0409954
Averages over the last 501 of 1002 rows, steps 5501000 to 6000029:
Temp Volume Press PotEng KinEng TotEng Enthalpy Density
1600 9884.97 -375.042 -6194.7 178.483 -6016.22 -6018.66 8.0682
Loop time of 303.571 on 192 procs for 1000000 steps with 864 atoms

unfix                    5
fix                      6 all npt temp 1600 2000 0.1 iso 1.0 1.0 1
run                      1000000
Setting up Verlet run ...
  Unit style    : metal
  Current step  : 6000029
  Time step     : 0.001
Step          Temp          Volume         Press          PotEng         KinEng         TotEng        Enthalpy       Density
6000029   1717.8504      9840.8807      13269.632     -6197.754       191.6288      -6006.1252     -5924.6206      8.1042552
Averages over the last 251 of 502 rows, steps 6251000 to 6501000:
Temp Volume Press PotEng KinEng TotEng Enthalpy Density
1753.3 10185.1 1187.78 -6137.67 195.584 -5942.09 -5934.64 7.83389
ERROR: Lost atoms: original 864 current 862 (../thermo.cpp:481)
Last command: run                      1000000
